<?xml version="1.0" encoding="UTF-8"?>

<!-- generated on 2026-03-19 14:17:48.208281 by Eclipse SUMO randomTrips.py v1_25_0+0000-ac6c5a6752d
<configuration>
    <net-file value="jnu_clean.net.xml"/>
    <route-file value="jnu_auto.rou.xml"/>
    <end value="600.0"/>
    <period value="2.0"/>
</configuration>
-->

<!-- generated on 2026-03-19T14:17:48.131442+08:00 by Eclipse SUMO duarouter 1.25.0
<duarouterConfiguration xmlns:xsi="http://www.w3.org/2001/XMLSchema-instance" xsi:noNamespaceSchemaLocation="http://sumo.dlr.de/xsd/duarouterConfiguration.xsd">

    <input>
        <net-file value="jnu_clean.net.xml"/>
        <route-files value="trips.trips.xml"/>
    </input>

    <output>
        <output-file value="jnu_auto.rou.xml"/>
        <alternatives-output value="NUL"/>
    </output>

    <time>
        <begin value="0.0"/>
        <end value="600.0"/>
    </time>

    <report>
        <no-warnings value="true"/>
        <ignore-errors value="true"/>
        <no-step-log value="true"/>
    </report>

</duarouterConfiguration>
-->

<routes xmlns:xsi="http://www.w3.org/2001/XMLSchema-instance" xsi:noNamespaceSchemaLocation="http://sumo.dlr.de/xsd/routes_file.xsd">
   <vehicle id="0" depart="0.00">
        <route edges="504914067#0 -504914067#0 -540282343#0 -540282342 -504914068#8 -504914068#7 -504914068#6 -504914068#5 E0 -1319021583"/>
    </vehicle>
    <vehicle id="1" depart="2.00">
        <route edges="-540274754#3 -540274754#2 -540274754#1 -540274754#0 504914068#5 504914068#6 504914068#7 -504914068#7"/>
    </vehicle>
    <vehicle id="2" depart="4.00">
        <route edges="540274754#1 540274755 -540274757#1 -540274757#0 504914068#1"/>
    </vehicle>
    <vehicle id="3" depart="6.00">
        <route edges="540274759 -540282342 -504914068#8 -504914068#7 -504914068#6 -504914068#5 E0 -504914068#1 -504914068#0 -504914064#4 -504914064#3"/>
    </vehicle>

    <vehicle id="peak_canteen_1" depart="7.00">
        <route edges="-504914068#7 -504914068#6 -504914068#5 540274754#0 540274754#1 540274754#2 540274754#3 540274754#4 540274754#5"/>
    </vehicle>

    <vehicle id="4" depart="8.00">
        <route edges="-540282341 -540274754#11 -540274754#10 -540274754#9 -540274754#8 -504914064#12 -504914064#11 -1319215243#1 -1319215243#0"/>
    </vehicle>

    <vehicle id="peak_canteen_2" depart="9.00">
        <route edges="-540274756#0 -540274754#0 504914068#5 504914068#6 504914068#7 -540282341 540282340 540274759"/>
    </vehicle>

    <vehicle id="5" depart="10.00">
        <route edges="-504914068#8 -504914068#7 -504914068#6 -504914068#5 E0 -1319021583 1319021583"/>
    </vehicle>

    <vehicle id="peak_canteen_3" depart="11.00">
        <route edges="-504914068#6 -504914068#5 540274754#0 540274754#1 540274754#2 540274754#3"/>
    </vehicle>

    <vehicle id="6" depart="12.00">
        <route edges="-1319215243#1 -1319215243#0 504914064#9 504914064#10 504914064#11 504914064#12 540274754#8 540274754#9 540274754#10 540274754#11 540282341 -504914068#7 -504914068#6 -504914068#5"/>
    </vehicle>

    <vehicle id="peak_canteen_4" depart="13.00">
        <route edges="504914068#5 504914068#6 504914068#7 -540282341"/>
    </vehicle>

    <vehicle id="7" depart="14.00">
        <route edges="504914067#1 -504914067#1 -504914067#0 -540282343#0 -540274759 -540282340 -540274754#11 -540274754#10 -540274754#9 -540274754#8 -504914064#12 -504914064#11 504914064#11"/>
    </vehicle>

    <vehicle id="peak_canteen_5" depart="15.00">
        <route edges="-504914068#7 -504914068#6 -504914068#5 540274754#0 540274754#1 540274754#2 540274754#3 540274754#4"/>
    </vehicle>

    <vehicle id="8" depart="16.00">
        <route edges="-504914068#8 -504914068#7 -504914068#6 -504914068#5 E0 -504914068#1 -504914068#0 504914064#5"/>
    </vehicle>

    <vehicle id="peak_canteen_6" depart="16.50">
        <route edges="-504914068#6 -504914068#5"/>
    </vehicle>

    <vehicle id="7a_peak_canteen_buffer" depart="17.00">
        <route edges="504914068#5 504914068#6"/>
    </vehicle>

    <vehicle id="peak_canteen_7" depart="17.50">
        <route edges="-504914068#6 -504914068#5"/>
    </vehicle>

    <vehicle id="9" depart="18.00">
        <route edges="540274754#7 540274754#8 540274754#9 540274754#10 540274754#11 540282340 540274759 540282343#0 504914067#0 504914067#1 -504914062#3 -1047005886"/>
    </vehicle>

    <vehicle id="peak_canteen_8" depart="19.00">
        <route edges="504914068#5 504914068#6 504914068#7 -540282341"/>
    </vehicle>

    <vehicle id="10" depart="20.00">
        <route edges="540274754#7 -540274754#7 -540274754#6 -540274754#5 -540274754#4 -540274754#3 -540274754#2 -540274754#1 -540274754#0 504914068#5 504914068#6"/>
    </vehicle>
    <vehicle id="11" depart="22.00">
        <route edges="-540274756#0 -540274754#0 504914068#5 504914068#6 504914068#7 504914068#8 540282342 540282343#0 504914067#0 504914067#1 -504914067#1"/>
    </vehicle>
    <vehicle id="12" depart="24.00">
        <route edges="540282343#1 -540282343#1 -540282343#0 -540282342 -504914068#8 -504914068#7 -504914068#6 -504914068#5 E0 -504914068#1 540274757#0 540274757#1 -540274755"/>
    </vehicle>
    <vehicle id="13" depart="26.00">
        <route edges="-504914064#4"/>
    </vehicle>
    <vehicle id="14" depart="28.00">
        <route edges="540274756#1 504914064#6 504914064#7"/>
    </vehicle>
    <vehicle id="15" depart="30.00">
        <route edges="540274754#7 -540274754#7 -540274754#6 -540274754#5 -540274754#4 -540274754#3 -540274754#2 -540274754#1 540274754#1"/>
    </vehicle>
    <vehicle id="16" depart="32.00">
        <route edges="504914062#3 -504914067#1 -1047005889 540282343#2"/>
    </vehicle>
    <vehicle id="17" depart="34.00">
        <route edges="-540274757#2 -540274755 540274754#2 540274754#3 540274754#4 540274754#5 540274754#6 540274754#7 -504914064#12 -504914064#11 504914064#11 504914064#12"/>
    </vehicle>
    <vehicle id="18" depart="36.00">
        <route edges="540274755 -540274757#1 540274756#1 504914064#6 504914064#7 504914064#8"/>
    </vehicle>
    <vehicle id="19" depart="38.00">
        <route edges="540274757#0 540274756#1 -504914064#5 -504914064#4 -504914064#3 504914064#3"/>
    </vehicle>
    <vehicle id="20" depart="40.00">
        <route edges="504914068#6 504914068#7 504914068#8 540282342 540282343#0 504914067#0 504914067#1 -504914062#3"/>
    </vehicle>
    <vehicle id="21" depart="42.00">
        <route edges="-540274754#0 540274754#0 540274754#1 540274754#2 540274754#3 540274754#4 540274754#5 540274754#6 540274754#7 -540274754#7 -540274754#6 -540274754#5 -540274754#4"/>
    </vehicle>
    <vehicle id="22" depart="44.00">
        <route edges="-504914064#3 504914064#3 504914064#4 504914064#5 -540274756#1 -540274756#0 -540274754#0"/>
    </vehicle>
    <vehicle id="23" depart="46.00">
        <route edges="-504914064#5 504914068#0 540274757#0 540274757#1 540274757#2 540274757#3 -540274754#3"/>
    </vehicle>
    <vehicle id="24" depart="48.00">
        <route edges="504914064#9 504914064#10 504914064#11 504914064#12 -540274754#7 -540274754#6 -540274754#5 -540274754#4 -540274757#3 -540274757#2 -540274757#1 -540274757#0"/>
    </vehicle>
    <vehicle id="25" depart="50.00">
        <route edges="-540274757#1 -540274757#0 504914068#1 -E0 504914068#5 504914068#6 504914068#7 -504914068#7 -504914068#6"/>
    </vehicle>
    <vehicle id="26" depart="52.00">
        <route edges="-540274754#2 -540274754#1 -540274754#0 504914068#5 504914068#6 504914068#7 -540282341 540282341"/>
    </vehicle>
    <vehicle id="27" depart="54.00">
        <route edges="504914067#1 -504914062#3 E1 504914064#3 504914064#4 504914064#5 504914064#6 504914064#7"/>
    </vehicle>
    <vehicle id="28" depart="56.00">
        <route edges="-504914067#6 504914067#6 504914064#2 504914064#3 1319021583 -E0 540274754#0 540274754#1"/>
    </vehicle>
    <vehicle id="29" depart="58.00">
        <route edges="-504914067#2 -504914067#1 -504914067#0 -540282343#0 -540274759 -540282340 -540274754#11 -540274754#10 -540274754#9 -540274754#8 -540274754#7 -540274754#6 -540274754#5 -540274754#4 -540274757#3 -540274757#2"/>
    </vehicle>
    <vehicle id="30" depart="60.00">
        <route edges="E1 -504914064#2 -504914067#6 -E2 -504914067#2 -504914067#1 504914067#1"/>
    </vehicle>
    <vehicle id="31" depart="62.00">
        <route edges="504914064#11 504914064#12 -540274754#7 -540274754#6 -540274754#5 -540274754#4 -540274754#3 -540274754#2 -540274754#1 -540274754#0 504914068#5"/>
    </vehicle>
    <vehicle id="32" depart="64.00">
        <route edges="540274756#0 540274757#1 540274757#2 540274757#3 540274754#4 540274754#5"/>
    </vehicle>
    <vehicle id="33" depart="66.00">
        <route edges="-540274754#0 540274754#0 540274754#1 540274754#2 540274754#3 540274754#4 540274754#5 540274754#6 540274754#7 -504914064#12 -504914064#11 -1319215243#1 -1319215243#0"/>
    </vehicle>
    <vehicle id="34" depart="68.00">
        <route edges="-540274754#8 -540274754#7 -540274754#6 -540274754#5 -540274754#4 -540274754#3 -540274754#2"/>
    </vehicle>
    <vehicle id="35" depart="70.00">
        <route edges="-504914068#7 -504914068#6 504914068#6 504914068#7 504914068#8 540282342"/>
    </vehicle>
    <vehicle id="36" depart="72.00">
        <route edges="540274757#2 540274757#3 540274754#4 540274754#5 540274754#6 540274754#7 -540274754#7"/>
    </vehicle>
    <vehicle id="37" depart="74.00">
        <route edges="504914067#2 E2 504914067#6 504914064#2 504914064#3 1319021583 -E0 540274754#0 540274754#1 540274754#2 540274754#3 -540274757#3"/>
    </vehicle>
    <vehicle id="38" depart="76.00">
        <route edges="540278027 E2 504914067#6 504914064#2 504914064#3 1319021583 -E0"/>
    </vehicle>
    <vehicle id="39" depart="78.00">
        <route edges="-540274754#2 -540274754#1"/>
    </vehicle>
    <vehicle id="40" depart="80.00">
        <route edges="504914064#12 540274754#8 540274754#9 540274754#10 540274754#11 -540274754#11"/>
    </vehicle>
    <vehicle id="41" depart="82.00">
        <route edges="504914064#3 -504914064#3 -504914064#2 -504914067#6 540278026#0 540278026#1"/>
    </vehicle>
    <vehicle id="42" depart="84.00">
        <route edges="-540282334 -504914068#7"/>
    </vehicle>
    <vehicle id="43" depart="86.00">
        <route edges="E2 504914067#6 504914064#2 504914064#3 504914064#4 504914064#5 504914064#6 504914064#7 504914064#8 1319215243#0"/>
    </vehicle>
    <vehicle id="44" depart="88.00">
        <route edges="-504914064#4 -504914064#3 -E1 504914062#3 -504914062#3"/>
    </vehicle>
    <vehicle id="45" depart="90.00">
        <route edges="-504914064#6 504914064#6 504914064#7 504914064#8 504914064#9"/>
    </vehicle>
    <vehicle id="46" depart="92.00">
        <route edges="540274754#5 540274754#6 540274754#7 540274754#8 540274754#9 540274754#10 540274754#11 540282341 -540282341"/>
    </vehicle>
    <vehicle id="47" depart="94.00">
        <route edges="-504914064#12 -504914064#11 504914064#11 504914064#12 -540274754#7 -540274754#6 -540274754#5 -540274754#4 -540274757#3 -540274757#2"/>
    </vehicle>
    <vehicle id="48" depart="96.00">
        <route edges="E2 504914067#6 504914064#2 -E1 504914062#3"/>
    </vehicle>
    <vehicle id="49" depart="98.00">
        <route edges="540282344 540278026#1 -E3 540278027 E2 504914067#6 504914064#2 504914064#3 504914064#4 504914068#0 540274757#0 540274757#1"/>
    </vehicle>
    <vehicle id="50" depart="100.00">
        <route edges="-1319021583 504914064#4 504914068#0 504914068#1 -E0 540274754#0"/>
    </vehicle>
    <vehicle id="51" depart="102.00">
        <route edges="504914068#1 -E0 540274754#0 540274754#1 540274754#2 540274754#3 540274754#4 540274754#5 540274754#6 540274754#7 -504914064#12 -504914064#11 -504914064#10 504914064#10"/>
    </vehicle>
    <vehicle id="52" depart="104.00">
        <route edges="-540274754#2 -540274754#1 -540274754#0 504914068#5 504914068#6 504914068#7 504914068#8 540282342 540282343#0 504914067#0 504914067#1"/>
    </vehicle>
    <vehicle id="53" depart="106.00">
        <route edges="-504914064#6 -540274756#1 -540274756#0 -540274754#0 504914068#5 504914068#6 504914068#7 504914068#8 540282342 540282343#0 -540282343#0"/>
    </vehicle>
    <vehicle id="54" depart="108.00">
        <route edges="-540282343#2 -540282343#1 -540282343#0 540282343#0"/>
    </vehicle>
    <vehicle id="55" depart="110.00">
        <route edges="540274757#2 540274757#3 540274754#4 540274754#5 540274754#6 540274754#7 540274754#8 540274754#9 540274754#10 540274754#11 -540274754#11"/>
    </vehicle>
    <vehicle id="56" depart="112.00">
        <route edges="1047005889 504914067#1 504914067#2 E2 504914067#6 -504914067#6"/>
    </vehicle>
    <vehicle id="57" depart="114.00">
        <route edges="540278026#1 -E3 540278027 E2 504914067#6 504914064#2 504914064#3 504914064#4 504914068#0 540274757#0 540274757#1 540274757#2"/>
    </vehicle>
    <vehicle id="58" depart="116.00">
        <route edges="-540274754#6 -540274754#5 -540274754#4 -540274754#3 -540274754#2 -540274754#1 -540274754#0 504914068#5 504914068#6 504914068#7 504914068#8 540282342 540282343#0 504914067#0 504914067#1"/>
    </vehicle>
    <vehicle id="59" depart="118.00">
        <route edges="504914064#6 504914064#7 504914064#8 504914064#9 504914064#10 504914064#11 504914064#12 540274754#8 540274754#9 540274754#10 540274754#11 540282340 540274759 540282343#0 504914067#0 -504914067#0"/>
    </vehicle>
    <vehicle id="60" depart="120.00">
        <route edges="540274754#2 540274754#3 540274754#4 540274754#5 540274754#6 540274754#7 -504914064#12 -504914064#11 -504914064#10 504914064#10"/>
    </vehicle>
    <vehicle id="61" depart="122.00">
        <route edges="540274754#4 540274754#5 540274754#6 540274754#7 540274754#8 540274754#9 540274754#10 540274754#11 540282340 540274759 540282343#0 504914067#0 504914067#1 -504914062#3 504914062#3"/>
    </vehicle>
    <vehicle id="62" depart="124.00">
        <route edges="-1047005889 -540282343#1 -540282343#0 -540274759 -540282340 -540274754#11 -540274754#10 -540274754#9 -540274754#8"/>
    </vehicle>
    <vehicle id="63" depart="126.00">
        <route edges="-1319215243#0 504914064#9 504914064#10 504914064#11 504914064#12 540274754#8 540274754#9 540274754#10 540274754#11 540282340"/>
    </vehicle>
    <vehicle id="64" depart="128.00">
        <route edges="540274757#2 540274757#3 -540274754#3 -540274754#2 -540274754#1 540274756#0"/>
    </vehicle>
    <vehicle id="65" depart="130.00">
        <route edges="-540274754#7 -540274754#6 -540274754#5 -540274754#4 540274754#4 540274754#5 540274754#6 540274754#7 -504914064#12 -504914064#11 -504914064#10"/>
    </vehicle>
    <vehicle id="66" depart="132.00">
        <route edges="540274757#2 540274757#3 -540274754#3 -540274754#2 -540274754#1 -540274754#0 504914068#5 504914068#6 504914068#7 504914068#8 540282342"/>
    </vehicle>
    <vehicle id="67" depart="134.00">
        <route edges="-504914064#3 -504914064#2 -504914067#6 540278026#0 540278026#1 -E3"/>
    </vehicle>
    <vehicle id="68" depart="136.00">
        <route edges="-504914064#2 504914064#2 504914064#3 1319021583 -E0 540274754#0 540274754#1 540274754#2 540274754#3"/>
    </vehicle>
    <vehicle id="69" depart="138.00">
        <route edges="540274754#2 540274754#3 540274754#4 540274754#5 540274754#6 540274754#7 -504914064#12 -504914064#11 -504914064#10 -504914064#9 -504914064#8 -504914064#7"/>
    </vehicle>
    <vehicle id="70" depart="140.00">
        <route edges="-E2 -504914067#2 -504914067#1 -504914067#0 -540282343#0 -540274759 -540282340 -540274754#11 -540274754#10 -540274754#9 -540274754#8 -504914064#12 -504914064#11 504914064#11"/>
    </vehicle>
    <vehicle id="71" depart="142.00">
        <route edges="-540274754#2 540274755 540274757#2 540274757#3"/>
    </vehicle>
    <vehicle id="72" depart="144.00">
        <route edges="-540282342 -504914068#8 -504914068#7 -504914068#6"/>
    </vehicle>
    <vehicle id="73" depart="146.00">
        <route edges="504914062#3 -504914067#1 -504914067#0 -540282343#0 -540282342 -504914068#8 -504914068#7 -504914068#6 -504914068#5 540274754#0 540274754#1"/>
    </vehicle>
    <vehicle id="74" depart="148.00">
        <route edges="-504914068#6 -504914068#5 540274754#0 540274754#1 540274754#2 540274754#3 540274754#4 540274754#5 540274754#6 540274754#7 -540274754#7"/>
    </vehicle>
    <vehicle id="75" depart="150.00">
        <route edges="E2 540278026#0 540278026#1 -E3 540278027 -504914067#2 504914067#2"/>
    </vehicle>
    <vehicle id="76" depart="152.00">
        <route edges="-540282343#0 -540274759 -540282340 -540274754#11 -540274754#10 -540274754#9 -540274754#8 -504914064#12 -504914064#11 -504914064#10 -504914064#9 1319215243#0 1319215243#1"/>
    </vehicle>
    <vehicle id="77" depart="154.00">
        <route edges="-504914064#8 -504914064#7 -504914064#6 -540274756#1 -540274756#0 -540274754#0 504914068#5 504914068#6 504914068#7 504914068#8 540282342 -540282342 -504914068#8"/>
    </vehicle>
    <vehicle id="78" depart="156.00">
        <route edges="-540274756#0 -540274754#0 E0 -504914068#1 -504914068#0 504914064#5"/>
    </vehicle>
    <vehicle id="79" depart="158.00">
        <route edges="-540274754#0 504914068#5 504914068#6 504914068#7 -504914068#7"/>
    </vehicle>
    <vehicle id="80" depart="160.00">
        <route edges="-504914064#2 -504914067#6 -E2 -504914067#2 -504914067#1 -504914067#0 504914067#0"/>
    </vehicle>
    <vehicle id="81" depart="162.00">
        <route edges="-540274754#0 E0 -504914068#1 -504914068#0 -504914064#4 -504914064#3 -504914064#2 -504914067#6 540278026#0 540278026#1 -E3 540278027"/>
    </vehicle>
    <vehicle id="82" depart="164.00">
        <route edges="540274757#0 540274757#1 540274757#2 540274757#3 540274754#4 540274754#5 540274754#6 540274754#7 -504914064#12"/>
    </vehicle>
    <vehicle id="83" depart="166.00">
        <route edges="-540274754#1 -540274754#0 E0 -504914068#1 -504914068#0 504914068#0"/>
    </vehicle>
    <vehicle id="84" depart="168.00">
        <route edges="-504914068#7 -504914068#6 -504914068#5 540274754#0 540274754#1 540274754#2 540274754#3 540274754#4 540274754#5 540274754#6 540274754#7 -504914064#12 -504914064#11 -504914064#10 -504914064#9 -504914064#8"/>
    </vehicle>
    <vehicle id="85" depart="170.00">
        <route edges="540282341 -504914068#7 -504914068#6 -504914068#5 E0 -504914068#1 -504914068#0 -504914064#4 -504914064#3 504914064#3"/>
    </vehicle>
    <vehicle id="86" depart="172.00">
        <route edges="-E1 504914062#3 -504914067#1 -504914067#0 -540282343#0 -540282342 -504914068#8 -504914068#7 -504914068#6 -504914068#5 540274754#0 540274754#1 540274754#2 540274754#3 540274754#4 540274754#5 540274754#6"/>
    </vehicle>
    <vehicle id="87" depart="174.00">
        <route edges="540274754#7 -540274754#7 -540274754#6 -540274754#5 -540274754#4 -540274754#3 -540274754#2 -540274754#1 -540274754#0 E0 -504914068#1"/>
    </vehicle>
    <vehicle id="88" depart="176.00">
        <route edges="-504914064#5 504914068#0 504914068#1 -E0 504914068#5 504914068#6 504914068#7 504914068#8 540282342 540282343#0 -540282343#0"/>
    </vehicle>
    <vehicle id="89" depart="178.00">
        <route edges="-540282342 -504914068#8 -504914068#7 -504914068#6 -504914068#5 E0 -504914068#1 -504914068#0 -504914064#4 -504914064#3 -E1"/>
    </vehicle>
    <vehicle id="90" depart="180.00">
        <route edges="540274754#0 540274756#0 -540274757#0 504914068#1"/>
    </vehicle>
    <vehicle id="91" depart="182.00">
        <route edges="E1 504914064#3 504914064#4 -504914064#4"/>
    </vehicle>
    <vehicle id="92" depart="184.00">
        <route edges="-540282334 -504914068#7 -504914068#6 -504914068#5 E0 -504914068#1 540274757#0 540274757#1 -540274755"/>
    </vehicle>
    <vehicle id="93" depart="186.00">
        <route edges="540274757#0 540274757#1 -540274755 -540274754#1"/>
    </vehicle>
    <vehicle id="94" depart="188.00">
        <route edges="-504914068#5 E0 -504914068#1 -504914068#0 -504914064#4 -504914064#3 -504914064#2 -504914067#6 540278026#0 -540282344"/>
    </vehicle>
    <vehicle id="95" depart="190.00">
        <route edges="-540282341 -540274754#11 -540274754#10 -540274754#9 -540274754#8 -540274754#7 -540274754#6 -540274754#5 -540274754#4 -540274754#3"/>
    </vehicle>
    <vehicle id="96" depart="192.00">
        <route edges="-540274754#10 -540274754#9 -540274754#8 540274754#8 540274754#9 540274754#10 540274754#11 540282340"/>
    </vehicle>
    <vehicle id="97" depart="194.00">
        <route edges="-540282343#1 -540282343#0 -540282342 -504914068#8 -504914068#7 -504914068#6 -504914068#5 E0 -504914068#1 540274757#0 540274757#1"/>
    </vehicle>
    <vehicle id="98" depart="196.00">
        <route edges="504914064#10 504914064#11 504914064#12 540274754#8 540274754#9 540274754#10 540274754#11 540282340 540274759 540282343#0 504914067#0 504914067#1 -504914062#3"/>
    </vehicle>
    <vehicle id="99" depart="198.00">
        <route edges="E2 504914067#6 504914064#2 504914064#3 1319021583 -E0 540274754#0 540274756#0"/>
    </vehicle>
    <vehicle id="100" depart="200.00">
        <route edges="540282344 540278026#1 -E3 540278027 -504914067#2 -504914067#1 -504914067#0 -540282343#0 -540282342 -504914068#8 -540282341 540282340"/>
    </vehicle>
    <vehicle id="101" depart="202.00">
        <route edges="540274756#1 -504914064#5 -504914064#4 -504914064#3 -504914064#2 -504914067#6 -E2 -504914067#2"/>
    </vehicle>
    <vehicle id="102" depart="204.00">
        <route edges="-E3 540278027 -504914067#2 -504914067#1 -504914067#0 -540282343#0 -540282342 -504914068#8 -504914068#7 -504914068#6"/>
    </vehicle>
    <vehicle id="103" depart="206.00">
        <route edges="-540282334 -540282341 -540274754#11 -540274754#10 -540274754#9 -540274754#8 -504914064#12 -504914064#11 -504914064#10"/>
    </vehicle>
    <vehicle id="104" depart="208.00">
        <route edges="-540274757#2 -540274757#1 -540274757#0 -504914068#0 -504914064#4 -504914064#3 -E1 -1047005886 1047005886 E1"/>
    </vehicle>
    <vehicle id="105" depart="210.00">
        <route edges="-540274754#2 540274754#2 540274754#3 540274754#4 540274754#5"/>
    </vehicle>
    <vehicle id="106" depart="212.00">
        <route edges="-540282343#2 -540282343#1 -540282343#0 -540282342"/>
    </vehicle>
    <vehicle id="107" depart="214.00">
        <route edges="540282343#1 1047005889 504914067#1 504914067#2 E2"/>
    </vehicle>
    <vehicle id="108" depart="216.00">
        <route edges="504914064#11 504914064#12 -540274754#7 -540274754#6 -540274754#5 -540274754#4 -540274754#3 -540274754#2 -540274754#1 -540274754#0 540274754#0"/>
    </vehicle>
    <vehicle id="109" depart="218.00">
        <route edges="-504914067#1 -504914067#0 -540282343#0 -540274759 -540282340 -540274754#11 -540274754#10 -540274754#9 -540274754#8 -540274754#7 -540274754#6 -540274754#5"/>
    </vehicle>
    <vehicle id="110" depart="220.00">
        <route edges="540282344 540278026#1 -E3 540278027 E2 504914067#6 504914064#2 504914064#3 504914064#4"/>
    </vehicle>
    <vehicle id="111" depart="222.00">
        <route edges="504914062#3 -504914067#1 -504914067#0 -540282343#0 -540274759 -540282340 -540274754#11 -540274754#10 -540274754#9 -540274754#8 540274754#8 540274754#9 540274754#10 540274754#11"/>
    </vehicle>
    <vehicle id="112" depart="224.00">
        <route edges="-504914064#11 504914064#11 504914064#12 -540274754#7 -540274754#6 -540274754#5 -540274754#4 -540274754#3 -540274754#2 -540274754#1 -540274754#0 E0 -1319021583 504914064#4"/>
    </vehicle>
    <vehicle id="113" depart="226.00">
        <route edges="1047005889 -504914067#0 -540282343#0 -540282342 -504914068#8 -504914068#7 -504914068#6 -504914068#5 E0 -504914068#1 540274757#0"/>
    </vehicle>
    <vehicle id="114" depart="228.00">
        <route edges="-504914067#2 -504914067#1 -504914067#0 540282343#1"/>
    </vehicle>
    <vehicle id="115" depart="230.00">
        <route edges="-504914064#3 504914064#3 1319021583 -504914068#1 -504914068#0"/>
    </vehicle>
    <vehicle id="116" depart="232.00">
        <route edges="504914064#5 -540274756#1 -540274757#0 504914068#1"/>
    </vehicle>
    <vehicle id="117" depart="234.00">
        <route edges="-540274754#1 540274754#1 540274754#2 540274754#3 540274754#4 540274754#5 540274754#6 540274754#7 -504914064#12 -504914064#11 -504914064#10 -504914064#9 -504914064#8 -504914064#7 -504914064#6"/>
    </vehicle>
    <vehicle id="118" depart="236.00">
        <route edges="540274759 -540282342 -504914068#8 -504914068#7 -504914068#6 -504914068#5 540274754#0 540274754#1 -540274754#1"/>
    </vehicle>
    <vehicle id="119" depart="238.00">
        <route edges="504914064#4 504914064#5 504914064#6 504914064#7 504914064#8"/>
    </vehicle>
    <vehicle id="120" depart="240.00">
        <route edges="-540282341 540282341 -504914068#7 -504914068#6 -504914068#5 E0 -1319021583 504914064#4"/>
    </vehicle>
    <vehicle id="121" depart="242.00">
        <route edges="1319215243#0 1319215243#1 504914064#11 504914064#12 540274754#8 540274754#9 540274754#10 540274754#11 540282341"/>
    </vehicle>
    <vehicle id="122" depart="244.00">
        <route edges="-504914068#6 -504914068#5 540274754#0"/>
    </vehicle>
    <vehicle id="123" depart="246.00">
        <route edges="-540274754#1 540274754#1 540274754#2 540274754#3 -540274757#3"/>
    </vehicle>
    <vehicle id="124" depart="248.00">
        <route edges="504914067#6 504914064#2 504914064#3 1319021583 -E0 540274754#0 540274754#1 540274754#2 540274754#3 540274754#4 540274754#5 540274754#6 540274754#7 -540274754#7 -540274754#6 -540274754#5"/>
    </vehicle>
    <vehicle id="125" depart="250.00">
        <route edges="-540274754#8 -540274754#7 -540274754#6 -540274754#5 -540274754#4 -540274754#3 -540274754#2 540274754#2"/>
    </vehicle>
    <vehicle id="126" depart="252.00">
        <route edges="-504914064#2 504914064#2 504914064#3 1319021583 -E0"/>
    </vehicle>
    <vehicle id="127" depart="254.00">
        <route edges="E2"/>
    </vehicle>
    <vehicle id="128" depart="256.00">
        <route edges="-504914064#2 504914064#2 504914064#3 1319021583 -E0 504914068#5 504914068#6 504914068#7 -504914068#7 -504914068#6"/>
    </vehicle>
    <vehicle id="129" depart="258.00">
        <route edges="-540274754#2 -540274754#1 -540274754#0 504914068#5 504914068#6 504914068#7 -540282341 540282341"/>
    </vehicle>
       <vehicle id="130" depart="260.00">
        <route edges="540274757#3"/>
    </vehicle>

    <vehicle id="131" depart="262.00">
        <route edges="-540274757#1 -540274757#0 -504914068#0 -504914064#4 -504914064#3 -E1 504914062#3 -504914067#1"/>
    </vehicle>

    <vehicle id="132" depart="264.00">
        <route edges="540274755 -540274755 -540274754#1 -540274754#0 504914068#5 504914068#6 504914068#7"/>
    </vehicle>

    <vehicle id="133" depart="266.00">
        <route edges="504914064#6 504914064#7 504914064#8 504914064#9 504914064#10 504914064#11 504914064#12 540274754#8 540274754#9 540274754#10 540274754#11 540282340 540274759 540282343#0 504914067#0 504914067#1 -504914062#3 E1"/>
    </vehicle>

    <vehicle id="134" depart="268.00">
        <route edges="504914067#1 -504914062#3 -1047005886"/>
    </vehicle>

    <vehicle id="135" depart="270.00">
        <route edges="540274754#8 540274754#9 540274754#10 540274754#11 -540274754#11 -540274754#10 -540274754#9 -540274754#8 -540274754#7 -540274754#6 -540274754#5"/>
    </vehicle>


    <vehicle id="136" depart="272.00">
        <route edges="504914067#2 -504914067#2 -504914067#1 -504914067#0 -540282343#0 -540274759 -540282340 540282341"/>
    </vehicle>

    <vehicle id="137" depart="274.00">
        <route edges="-504914064#9 -504914064#8 -504914064#7 -504914064#6"/>
    </vehicle>

    <vehicle id="138" depart="276.00">
        <route edges="-504914064#6 504914064#6 504914064#7 504914064#8 504914064#9 504914064#10 504914064#11 504914064#12"/>
    </vehicle>

    <vehicle id="139" depart="278.00">
        <route edges="-540274754#3 -540274754#2 -540274754#1 540274756#0 540274756#1 504914064#6 504914064#7"/>
    </vehicle>

    <vehicle id="140" depart="280.00">
        <route edges="504914068#8 540282342 -540282342 -504914068#8 -504914068#7 -504914068#6 -504914068#5"/>
    </vehicle>

    <vehicle id="141" depart="282.00">
        <route edges="504914064#9 504914064#10 504914064#11 504914064#12 540274754#8 540274754#9 540274754#10 540274754#11 -540274754#11"/>
    </vehicle>

    <vehicle id="142" depart="284.00">
        <route edges="-E3 540278027"/>
    </vehicle>

    <vehicle id="143" depart="286.00">
        <route edges="540274756#1 -504914064#5 -504914064#4 -504914064#3"/>
    </vehicle>

    <vehicle id="144" depart="288.00">
        <route edges="-540282342 -504914068#8 -540282341 -540274754#11 -540274754#10 -540274754#9 -540274754#8 -540274754#7 -540274754#6 -540274754#5 -540274754#4 -540274754#3"/>
    </vehicle>

    <vehicle id="145" depart="290.00">
        <route edges="-1047005889 -540282343#1 -540282343#0 -540282342 -504914068#8 -504914068#7 -504914068#6 -504914068#5 540274754#0 540274754#1 540274754#2 540274754#3 540274754#4"/>
    </vehicle>


    <vehicle id="146" depart="292.00">
        <route edges="504914064#9 504914064#10 504914064#11 504914064#12 540274754#8 540274754#9 540274754#10 540274754#11 -540274754#11"/>
    </vehicle>

    <vehicle id="147" depart="294.00">
        <route edges="540274754#1 540274754#2 540274754#3 540274754#4 540274754#5 540274754#6 540274754#7 -504914064#12 -504914064#11 504914064#11"/>
    </vehicle>

    <vehicle id="148" depart="296.00">
        <route edges="-540282342 -504914068#8 504914068#8 540282342 540282343#0 504914067#0 -1047005889"/>
    </vehicle>

    <vehicle id="149" depart="298.00">
        <route edges="-504914064#2 504914064#2 504914064#3 1319021583 -E0 504914068#5 504914068#6 504914068#7 -540282341 540282340 540274759"/>
    </vehicle>

    <vehicle id="150" depart="300.00">