<?xml version="1.0" encoding="UTF-8"?>
<routes>
    <vType id="car" accel="2.0" decel="4.5" maxSpeed="15" length="4.5"/>

    <!-- 20辆车，错开出发时间 -->
    <vehicle id="car1" type="car" depart="0">
        <route edges="E1 504914064#3 1319021583"/>
    </vehicle>
    <vehicle id="car2" type="car" depart="2">
        <route edges="E1 504914064#3 1319021583"/>
    </vehicle>
    <vehicle id="car3" type="car" depart="4">
        <route edges="E1 504914064#3 1319021583"/>
    </vehicle>
    <vehicle id="car4" type="car" depart="6">
        <route edges="E1 504914064#3 1319021583"/>
    </vehicle>
    <vehicle id="car5" type="car" depart="8">
        <route edges="E1 504914064#3 1319021583"/>
    </vehicle>
    <vehicle id="car6" type="car" depart="10">
        <route edges="E1 504914064#3 1319021583"/>
    </vehicle>
    <vehicle id="car7" type="car" depart="12">
        <route edges="E1 504914064#3 1319021583"/>
    </vehicle>
    <vehicle id="car8" type="car" depart="14">
        <route edges="E1 504914064#3 1319021583"/>
    </vehicle>
    <vehicle id="car9" type="car" depart="16">
        <route edges="E1 504914064#3 1319021583"/>
    </vehicle>
    <vehicle id="car10" type="car" depart="18">
        <route edges="E1 504914064#3 1319021583"/>
    </vehicle>
    <vehicle id="car11" type="car" depart="20">
        <route edges="E1 504914064#3 1319021583"/>
    </vehicle>
    <vehicle id="car12" type="car" depart="22">
        <route edges="E1 504914064#3 1319021583"/>
    </vehicle>
    <vehicle id="car13" type="car" depart="24">
        <route edges="E1 504914064#3 1319021583"/>
    </vehicle>
    <vehicle id="car14" type="car" depart="26">
        <route edges="E1 504914064#3 1319021583"/>
    </vehicle>
    <vehicle id="car15" type="car" depart="28">
        <route edges="E1 504914064#3 1319021583"/>
    </vehicle>
    <vehicle id="car16" type="car" depart="30">
        <route edges="E1 504914064#3 1319021583"/>
    </vehicle>
    <vehicle id="car17" type="car" depart="32">
        <route edges="E1 504914064#3 1319021583"/>
    </vehicle>
    <vehicle id="car18" type="car" depart="34">
        <route edges="E1 504914064#3 1319021583"/>
    </vehicle>
    <vehicle id="car19" type="car" depart="36">
        <route edges="E1 504914064#3 1319021583"/>
    </vehicle>
    <vehicle id="car20" type="car" depart="38">
        <route edges="E1 504914064#3 1319021583"/>
    </vehicle>

</routes>
