<?xml version="1.0" encoding="UTF-8"?>
<configuration>
    <input>
        <net-file value="jnu_clean.net.xml"/>
        <route-files value="jnu_auto.rou.xml"/>
    </input>

    <time>
        <begin value="0"/>
        <end value="600"/>
    </time>
</configuration>
