<?xml version="1.0" encoding="UTF-8"?>

<!-- generated on 2025-12-10T13:35:50.820707+08:00 by Eclipse SUMO netedit 1.25.0
<neteditConfiguration xmlns:xsi="http://www.w3.org/2001/XMLSchema-instance" xsi:noNamespaceSchemaLocation="http://sumo.dlr.de/xsd/neteditConfiguration.xsd">

    <input>
        <sumo-net-file value="F:\Program Files (x86)\Eclipse\Sumo\DirectoryName\jnu_clean.net.xml"/>
    </input>

    <output>
        <output-file value="F:\Program Files (x86)\Eclipse\Sumo\DirectoryName\jnu_clean.net.xml"/>
    </output>

    <processing>
        <geometry.min-radius.fix.railways value="false"/>
        <geometry.avoid-overlap value="false"/>
        <geometry.max-grade.fix value="false"/>
        <offset.disable-normalization value="true"/>
        <lefthand value="0"/>
    </processing>

    <junctions>
        <no-turnarounds value="true"/>
        <junctions.corner-detail value="5"/>
        <junctions.limit-turn-speed value="5.50"/>
        <rectangular-lane-cut value="0"/>
    </junctions>

    <pedestrian>
        <walkingareas value="0"/>
    </pedestrian>

</neteditConfiguration>
-->

<net version="1.20" junctionCornerDetail="5" limitTurnSpeed="5.50" avoidOverlap="0" xmlns:xsi="http://www.w3.org/2001/XMLSchema-instance" xsi:noNamespaceSchemaLocation="http://sumo.dlr.de/xsd/net_file.xsd">

    <location netOffset="-745401.29,-2546340.34" convBoundary="0.00,0.00,2938.02,2317.80" origBoundary="113.394233,23.007369,113.423252,23.027852" projParameter="+proj=utm +zone=49 +ellps=WGS84 +datum=WGS84 +units=m +no_defs"/>

    <type id="highway.residential" priority="3" numLanes="1" speed="13.89" disallow="tram rail_urban rail rail_electric rail_fast ship container cable_car subway aircraft wheelchair scooter drone" oneway="0"/>
    <type id="highway.unclassified" priority="4" numLanes="1" speed="13.89" disallow="tram rail_urban rail rail_electric rail_fast ship container cable_car subway aircraft wheelchair scooter drone" oneway="0"/>

    <edge id=":12207125823_0" function="internal">
        <lane id=":12207125823_0_0" index="0" disallow="tram rail_urban rail rail_electric rail_fast ship container cable_car subway aircraft wheelchair scooter drone" speed="13.89" length="14.40" shape="1330.26,1417.17 1317.37,1410.74"/>
    </edge>
    <edge id=":12207125823_1" function="internal">
        <lane id=":12207125823_1_0" index="0" disallow="tram rail_urban rail rail_electric rail_fast ship container cable_car subway aircraft wheelchair scooter drone" speed="8.07" length="14.22" shape="1330.26,1417.17 1327.09,1414.97 1325.36,1412.26 1325.08,1409.03 1326.25,1405.30"/>
    </edge>
    <edge id=":12207125823_2" function="internal">
        <lane id=":12207125823_2_0" index="0" disallow="tram rail_urban rail rail_electric rail_fast ship container cable_car subway aircraft wheelchair scooter drone" speed="6.59" length="9.14" shape="1329.14,1406.66 1328.39,1409.07 1328.56,1411.15 1329.66,1412.89 1331.69,1414.30"/>
    </edge>
    <edge id=":12207125823_3" function="internal">
        <lane id=":12207125823_3_0" index="0" disallow="tram rail_urban rail rail_electric rail_fast ship container cable_car subway aircraft wheelchair scooter drone" speed="7.96" length="14.27" shape="1329.14,1406.66 1326.98,1409.94 1324.30,1411.71 1321.10,1411.97 1317.37,1410.74"/>
    </edge>
    <edge id=":12207125823_4" function="internal">
        <lane id=":12207125823_4_0" index="0" disallow="tram rail_urban rail rail_electric rail_fast ship container cable_car subway aircraft wheelchair scooter drone" speed="3.65" length="1.44" shape="1329.14,1406.66 1327.91,1407.41"/>
    </edge>
    <edge id=":12207125823_8" function="internal">
        <lane id=":12207125823_8_0" index="0" disallow="tram rail_urban rail rail_electric rail_fast ship container cable_car subway aircraft wheelchair scooter drone" speed="3.65" length="3.23" shape="1327.91,1407.41 1327.01,1407.43 1326.46,1406.72 1326.25,1405.30"/>
    </edge>
    <edge id=":12207125823_5" function="internal">
        <lane id=":12207125823_5_0" index="0" disallow="tram rail_urban rail rail_electric rail_fast ship container cable_car subway aircraft wheelchair scooter drone" speed="6.46" length="9.03" shape="1318.80,1407.87 1321.16,1408.66 1323.18,1408.49 1324.88,1407.37 1326.25,1405.30"/>
    </edge>
    <edge id=":12207125823_6" function="internal">
        <lane id=":12207125823_6_0" index="0" disallow="tram rail_urban rail rail_electric rail_fast ship container cable_car subway aircraft wheelchair scooter drone" speed="13.89" length="14.40" shape="1318.80,1407.87 1331.69,1414.30"/>
    </edge>
    <edge id=":12207125823_7" function="internal">
        <lane id=":12207125823_7_0" index="0" disallow="tram rail_urban rail rail_electric rail_fast ship container cable_car subway aircraft wheelchair scooter drone" speed="3.65" length="1.30" shape="1318.80,1407.87 1319.45,1409.01"/>
    </edge>
    <edge id=":12207125823_9" function="internal">
        <lane id=":12207125823_9_0" index="0" disallow="tram rail_urban rail rail_electric rail_fast ship container cable_car subway aircraft wheelchair scooter drone" speed="3.65" length="3.37" shape="1319.45,1409.01 1319.52,1409.13 1319.52,1410.02 1318.80,1410.56 1317.37,1410.74"/>
    </edge>
    <edge id=":12208676340_0" function="internal">
        <lane id=":12208676340_0_0" index="0" disallow="tram rail_urban rail rail_electric rail_fast ship container cable_car subway aircraft wheelchair scooter drone" speed="13.89" length="14.40" shape="1372.73,1864.54 1360.91,1856.31"/>
    </edge>
    <edge id=":12208676340_1" function="internal">
        <lane id=":12208676340_1_0" index="0" disallow="tram rail_urban rail rail_electric rail_fast ship container cable_car subway aircraft wheelchair scooter drone" speed="7.97" length="4.08" shape="1372.73,1864.54 1369.87,1861.87 1369.80,1861.72"/>
    </edge>
    <edge id=":12208676340_2" function="internal">
        <lane id=":12208676340_2_0" index="0" disallow="tram rail_urban rail rail_electric rail_fast ship container cable_car subway aircraft wheelchair scooter drone" speed="3.65" length="1.44" shape="1372.73,1864.54 1372.20,1863.20"/>
    </edge>
    <edge id=":12208676340_9" function="internal">
        <lane id=":12208676340_9_0" index="0" disallow="tram rail_urban rail rail_electric rail_fast ship container cable_car subway aircraft wheelchair scooter drone" speed="7.97" length="10.18" shape="1369.80,1861.72 1368.56,1858.93 1368.82,1855.73 1370.64,1852.26"/>
    </edge>
    <edge id=":12208676340_10" function="internal">
        <lane id=":12208676340_10_0" index="0" disallow="tram rail_urban rail rail_electric rail_fast ship container cable_car subway aircraft wheelchair scooter drone" speed="3.65" length="3.23" shape="1372.20,1863.20 1372.33,1862.31 1373.12,1861.88 1374.56,1861.91"/>
    </edge>
    <edge id=":12208676340_3" function="internal">
        <lane id=":12208676340_3_0" index="0" disallow="tram rail_urban rail rail_electric rail_fast ship container cable_car subway aircraft wheelchair scooter drone" speed="6.47" length="9.03" shape="1373.24,1854.13 1372.08,1856.33 1371.92,1858.36 1372.75,1860.22 1374.56,1861.91"/>
    </edge>
    <edge id=":12208676340_4" function="internal">
        <lane id=":12208676340_4_0" index="0" disallow="tram rail_urban rail rail_electric rail_fast ship container cable_car subway aircraft wheelchair scooter drone" speed="8.06" length="14.22" shape="1373.24,1854.13 1370.53,1856.95 1367.57,1858.26 1364.37,1858.04 1360.91,1856.31"/>
    </edge>
    <edge id=":12208676340_5" function="internal">
        <lane id=":12208676340_5_0" index="0" disallow="tram rail_urban rail rail_electric rail_fast ship container cable_car subway aircraft wheelchair scooter drone" speed="3.65" length="4.67" shape="1373.24,1854.13 1371.89,1854.64 1371.00,1854.49 1370.59,1853.70 1370.64,1852.26"/>
    </edge>
    <edge id=":12208676340_6" function="internal">
        <lane id=":12208676340_6_0" index="0" disallow="tram rail_urban rail rail_electric rail_fast ship container cable_car subway aircraft wheelchair scooter drone" speed="6.58" length="9.12" shape="1362.74,1853.69 1364.95,1854.79 1367.00,1854.92 1368.90,1854.08 1370.64,1852.26"/>
    </edge>
    <edge id=":12208676340_7" function="internal">
        <lane id=":12208676340_7_0" index="0" disallow="tram rail_urban rail rail_electric rail_fast ship container cable_car subway aircraft wheelchair scooter drone" speed="13.89" length="14.40" shape="1362.74,1853.69 1374.56,1861.91"/>
    </edge>
    <edge id=":12208676340_8" function="internal">
        <lane id=":12208676340_8_0" index="0" disallow="tram rail_urban rail rail_electric rail_fast ship container cable_car subway aircraft wheelchair scooter drone" speed="3.65" length="1.44" shape="1362.74,1853.69 1363.27,1855.03"/>
    </edge>
    <edge id=":12208676340_11" function="internal">
        <lane id=":12208676340_11_0" index="0" disallow="tram rail_urban rail rail_electric rail_fast ship container cable_car subway aircraft wheelchair scooter drone" speed="3.65" length="3.23" shape="1363.27,1855.03 1363.14,1855.91 1362.35,1856.34 1360.91,1856.31"/>
    </edge>
    <edge id=":12208686910_0" function="internal">
        <lane id=":12208686910_0_0" index="0" disallow="tram rail_urban rail rail_electric rail_fast ship container cable_car subway aircraft wheelchair scooter drone" speed="13.89" length="0.10" shape="1427.80,1833.83 1427.80,1833.83"/>
    </edge>
    <edge id=":12208686910_1" function="internal">
        <lane id=":12208686910_1_0" index="0" disallow="tram rail_urban rail rail_electric rail_fast ship container cable_car subway aircraft wheelchair scooter drone" speed="13.89" length="0.10" shape="1427.86,1830.63 1427.86,1830.63"/>
    </edge>
    <edge id=":12208686911_0" function="internal">
        <lane id=":12208686911_0_0" index="0" disallow="tram rail_urban rail rail_electric rail_fast ship container cable_car subway aircraft wheelchair scooter drone" speed="13.89" length="15.59" shape="1511.44,1829.61 1502.83,1842.61"/>
    </edge>
    <edge id=":12208686911_1" function="internal">
        <lane id=":12208686911_1_0" index="0" disallow="tram rail_urban rail rail_electric rail_fast ship container cable_car subway aircraft wheelchair scooter drone" speed="11.09" length="3.53" shape="1511.44,1829.61 1509.17,1832.01 1508.98,1832.12"/>
    </edge>
    <edge id=":12208686911_2" function="internal">
        <lane id=":12208686911_2_0" index="0" disallow="tram rail_urban rail rail_electric rail_fast ship container cable_car subway aircraft wheelchair scooter drone" speed="3.65" length="1.44" shape="1511.44,1829.61 1510.11,1830.17"/>
    </edge>
    <edge id=":12208686911_9" function="internal">
        <lane id=":12208686911_9_0" index="0" disallow="tram rail_urban rail rail_electric rail_fast ship container cable_car subway aircraft wheelchair scooter drone" speed="11.09" length="12.44" shape="1508.98,1832.12 1506.02,1833.71 1501.98,1834.69 1497.07,1834.96"/>
    </edge>
    <edge id=":12208686911_10" function="internal">
        <lane id=":12208686911_10_0" index="0" disallow="tram rail_urban rail rail_electric rail_fast ship container cable_car subway aircraft wheelchair scooter drone" speed="3.65" length="3.23" shape="1510.11,1830.17 1509.22,1830.06 1508.78,1829.28 1508.77,1827.84"/>
    </edge>
    <edge id=":12208686911_3" function="internal">
        <lane id=":12208686911_3_0" index="0" disallow="tram rail_urban rail rail_electric rail_fast ship container cable_car subway aircraft wheelchair scooter drone" speed="9.96" length="12.77" shape="1497.12,1831.76 1501.21,1831.57 1504.51,1830.85 1507.03,1829.61 1508.77,1827.84"/>
    </edge>
    <edge id=":12208686911_4" function="internal">
        <lane id=":12208686911_4_0" index="0" disallow="tram rail_urban rail rail_electric rail_fast ship container cable_car subway aircraft wheelchair scooter drone" speed="7.39" length="17.13" shape="1497.12,1831.76 1502.26,1832.52 1504.93,1834.58 1505.12,1837.94 1502.83,1842.61"/>
    </edge>
    <edge id=":12208686911_5" function="internal">
        <lane id=":12208686911_5_0" index="0" disallow="tram rail_urban rail rail_electric rail_fast ship container cable_car subway aircraft wheelchair scooter drone" speed="3.65" length="4.67" shape="1497.12,1831.76 1498.30,1832.58 1498.69,1833.39 1498.28,1834.18 1497.07,1834.96"/>
    </edge>
    <edge id=":12208686911_6" function="internal">
        <lane id=":12208686911_6_0" index="0" disallow="tram rail_urban rail rail_electric rail_fast ship container cable_car subway aircraft wheelchair scooter drone" speed="5.62" length="9.29" shape="1500.17,1840.84 1501.40,1838.31 1501.30,1836.49 1499.85,1835.37 1497.07,1834.96"/>
    </edge>
    <edge id=":12208686911_7" function="internal">
        <lane id=":12208686911_7_0" index="0" disallow="tram rail_urban rail rail_electric rail_fast ship container cable_car subway aircraft wheelchair scooter drone" speed="13.89" length="15.59" shape="1500.17,1840.84 1508.77,1827.84"/>
    </edge>
    <edge id=":12208686911_8" function="internal">
        <lane id=":12208686911_8_0" index="0" disallow="tram rail_urban rail rail_electric rail_fast ship container cable_car subway aircraft wheelchair scooter drone" speed="3.65" length="1.44" shape="1500.17,1840.84 1501.50,1840.28"/>
    </edge>
    <edge id=":12208686911_11" function="internal">
        <lane id=":12208686911_11_0" index="0" disallow="tram rail_urban rail rail_electric rail_fast ship container cable_car subway aircraft wheelchair scooter drone" speed="3.65" length="3.23" shape="1501.50,1840.28 1502.38,1840.39 1502.83,1841.17 1502.83,1842.61"/>
    </edge>
    <edge id=":12208686932_0" function="internal">
        <lane id=":12208686932_0_0" index="0" disallow="tram rail_urban rail rail_electric rail_fast ship container cable_car subway aircraft wheelchair scooter drone" speed="13.89" length="0.30" shape="1406.53,1781.30 1406.24,1781.26"/>
    </edge>
    <edge id=":12208686932_1" function="internal">
        <lane id=":12208686932_1_0" index="0" disallow="tram rail_urban rail rail_electric rail_fast ship container cable_car subway aircraft wheelchair scooter drone" speed="13.89" length="0.30" shape="1406.72,1778.10 1407.02,1778.14"/>
    </edge>
    <edge id=":4950043848_0" function="internal">
        <lane id=":4950043848_0_0" index="0" disallow="tram rail_urban rail rail_electric rail_fast ship container cable_car subway aircraft wheelchair scooter drone" speed="3.65" length="4.67" shape="1968.27,1784.22 1968.62,1785.62 1968.37,1786.48 1967.54,1786.80 1966.11,1786.58"/>
    </edge>
    <edge id=":4950043849_0" function="internal">
        <lane id=":4950043849_0_0" index="0" disallow="tram rail_urban rail rail_electric rail_fast ship container cable_car subway aircraft wheelchair scooter drone" speed="6.66" length="9.16" shape="1998.23,1407.24 1996.21,1405.83 1994.19,1405.39 1992.15,1405.92 1990.12,1407.42"/>
    </edge>
    <edge id=":4950043849_1" function="internal">
        <lane id=":4950043849_1_0" index="0" disallow="tram rail_urban rail rail_electric rail_fast ship container cable_car subway aircraft wheelchair scooter drone" speed="13.89" length="14.33" shape="1998.23,1407.24 1988.00,1397.20"/>
    </edge>
    <edge id=":4950043849_2" function="internal">
        <lane id=":4950043849_2_0" index="0" disallow="tram rail_urban rail rail_electric rail_fast ship container cable_car subway aircraft wheelchair scooter drone" speed="3.65" length="1.44" shape="1998.23,1407.24 1997.90,1405.84"/>
    </edge>
    <edge id=":4950043849_9" function="internal">
        <lane id=":4950043849_9_0" index="0" disallow="tram rail_urban rail rail_electric rail_fast ship container cable_car subway aircraft wheelchair scooter drone" speed="3.65" length="3.23" shape="1997.90,1405.84 1998.16,1404.98 1998.99,1404.67 2000.42,1404.91"/>
    </edge>
    <edge id=":4950043849_3" function="internal">
        <lane id=":4950043849_3_0" index="0" disallow="tram rail_urban rail rail_electric rail_fast ship container cable_car subway aircraft wheelchair scooter drone" speed="13.89" length="14.18" shape="1990.29,1394.97 2000.42,1404.91"/>
    </edge>
    <edge id=":4950043849_4" function="internal">
        <lane id=":4950043849_4_0" index="0" disallow="tram rail_urban rail rail_electric rail_fast ship container cable_car subway aircraft wheelchair scooter drone" speed="8.00" length="3.89" shape="1990.29,1394.97 1992.59,1398.12"/>
    </edge>
    <edge id=":4950043849_5" function="internal">
        <lane id=":4950043849_5_0" index="0" disallow="tram rail_urban rail rail_electric rail_fast ship container cable_car subway aircraft wheelchair scooter drone" speed="3.65" length="1.44" shape="1990.29,1394.97 1990.56,1396.39"/>
    </edge>
    <edge id=":4950043849_10" function="internal">
        <lane id=":4950043849_10_0" index="0" disallow="tram rail_urban rail rail_electric rail_fast ship container cable_car subway aircraft wheelchair scooter drone" speed="8.00" length="10.31" shape="1992.59,1398.12 1993.33,1401.24 1992.50,1404.34 1990.12,1407.42"/>
    </edge>
    <edge id=":4950043849_11" function="internal">
        <lane id=":4950043849_11_0" index="0" disallow="tram rail_urban rail rail_electric rail_fast ship container cable_car subway aircraft wheelchair scooter drone" speed="3.65" length="3.23" shape="1990.56,1396.39 1990.27,1397.23 1989.41,1397.51 1988.00,1397.20"/>
    </edge>
    <edge id=":4950043849_6" function="internal">
        <lane id=":4950043849_6_0" index="0" disallow="tram rail_urban rail rail_electric rail_fast ship container cable_car subway aircraft wheelchair scooter drone" speed="6.50" length="9.03" shape="1987.89,1405.12 1989.41,1403.16 1989.93,1401.19 1989.46,1399.20 1988.00,1397.20"/>
    </edge>
    <edge id=":4950043849_7" function="internal">
        <lane id=":4950043849_7_0" index="0" disallow="tram rail_urban rail rail_electric rail_fast ship container cable_car subway aircraft wheelchair scooter drone" speed="8.13" length="14.14" shape="1987.89,1405.12 1991.02,1402.83 1994.16,1402.03 1997.29,1402.72 2000.42,1404.91"/>
    </edge>
    <edge id=":4950043849_8" function="internal">
        <lane id=":4950043849_8_0" index="0" disallow="tram rail_urban rail rail_electric rail_fast ship container cable_car subway aircraft wheelchair scooter drone" speed="3.65" length="4.67" shape="1987.89,1405.12 1989.31,1404.86 1990.15,1405.15 1990.42,1406.01 1990.12,1407.42"/>
    </edge>
    <edge id=":4950043853_0" function="internal">
        <lane id=":4950043853_0_0" index="0" disallow="tram rail_urban rail rail_electric rail_fast ship container cable_car subway aircraft wheelchair scooter drone" speed="6.36" length="9.04" shape="1882.61,1289.06 1880.63,1287.54 1878.67,1287.06 1876.73,1287.62 1874.82,1289.24"/>
    </edge>
    <edge id=":4950043853_1" function="internal">
        <lane id=":4950043853_1_0" index="0" disallow="tram rail_urban rail rail_electric rail_fast ship container cable_car subway aircraft wheelchair scooter drone" speed="13.89" length="14.34" shape="1882.61,1289.06 1872.87,1278.54"/>
    </edge>
    <edge id=":4950043853_2" function="internal">
        <lane id=":4950043853_2_0" index="0" disallow="tram rail_urban rail rail_electric rail_fast ship container cable_car subway aircraft wheelchair scooter drone" speed="3.65" length="1.44" shape="1882.61,1289.06 1882.35,1287.64"/>
    </edge>
    <edge id=":4950043853_9" function="internal">
        <lane id=":4950043853_9_0" index="0" disallow="tram rail_urban rail rail_electric rail_fast ship container cable_car subway aircraft wheelchair scooter drone" speed="3.65" length="3.23" shape="1882.35,1287.64 1882.64,1286.80 1883.49,1286.53 1884.90,1286.83"/>
    </edge>
    <edge id=":4950043853_3" function="internal">
        <lane id=":4950043853_3_0" index="0" disallow="tram rail_urban rail rail_electric rail_fast ship container cable_car subway aircraft wheelchair scooter drone" speed="13.89" length="14.17" shape="1875.27,1276.43 1884.90,1286.83"/>
    </edge>
    <edge id=":4950043853_4" function="internal">
        <lane id=":4950043853_4_0" index="0" disallow="tram rail_urban rail rail_electric rail_fast ship container cable_car subway aircraft wheelchair scooter drone" speed="8.39" length="3.71" shape="1875.27,1276.43 1877.28,1279.56"/>
    </edge>
    <edge id=":4950043853_5" function="internal">
        <lane id=":4950043853_5_0" index="0" disallow="tram rail_urban rail rail_electric rail_fast ship container cable_car subway aircraft wheelchair scooter drone" speed="3.65" length="1.44" shape="1875.27,1276.43 1875.46,1277.86"/>
    </edge>
    <edge id=":4950043853_10" function="internal">
        <lane id=":4950043853_10_0" index="0" disallow="tram rail_urban rail rail_electric rail_fast ship container cable_car subway aircraft wheelchair scooter drone" speed="8.39" length="10.53" shape="1877.28,1279.56 1877.88,1282.73 1877.06,1285.96 1874.82,1289.24"/>
    </edge>
    <edge id=":4950043853_11" function="internal">
        <lane id=":4950043853_11_0" index="0" disallow="tram rail_urban rail rail_electric rail_fast ship container cable_car subway aircraft wheelchair scooter drone" speed="3.65" length="3.23" shape="1875.46,1277.86 1875.12,1278.69 1874.26,1278.92 1872.87,1278.54"/>
    </edge>
    <edge id=":4950043853_6" function="internal">
        <lane id=":4950043853_6_0" index="0" disallow="tram rail_urban rail rail_electric rail_fast ship container cable_car subway aircraft wheelchair scooter drone" speed="6.97" length="9.53" shape="1872.43,1287.11 1873.96,1284.89 1874.54,1282.72 1874.18,1280.60 1872.87,1278.54"/>
    </edge>
    <edge id=":4950043853_7" function="internal">
        <lane id=":4950043853_7_0" index="0" disallow="tram rail_urban rail rail_electric rail_fast ship container cable_car subway aircraft wheelchair scooter drone" speed="7.88" length="14.47" shape="1872.43,1287.11 1875.49,1284.53 1878.59,1283.62 1881.73,1284.39 1884.90,1286.83"/>
    </edge>
    <edge id=":4950043853_8" function="internal">
        <lane id=":4950043853_8_0" index="0" disallow="tram rail_urban rail rail_electric rail_fast ship container cable_car subway aircraft wheelchair scooter drone" speed="3.65" length="4.67" shape="1872.43,1287.11 1873.83,1286.74 1874.69,1286.98 1875.02,1287.81 1874.82,1289.24"/>
    </edge>
    <edge id=":4950043868_0" function="internal">
        <lane id=":4950043868_0_0" index="0" disallow="tram rail_urban rail rail_electric rail_fast ship container cable_car subway aircraft wheelchair scooter drone" speed="6.35" length="9.04" shape="1707.32,1610.25 1705.05,1609.19 1703.03,1609.15 1701.27,1610.13 1699.76,1612.12"/>
    </edge>
    <edge id=":4950043868_1" function="internal">
        <lane id=":4950043868_1_0" index="0" disallow="tram rail_urban rail rail_electric rail_fast ship container cable_car subway aircraft wheelchair scooter drone" speed="13.89" length="14.42" shape="1707.32,1610.25 1695.25,1602.35"/>
    </edge>
    <edge id=":4950043868_2" function="internal">
        <lane id=":4950043868_2_0" index="0" disallow="tram rail_urban rail rail_electric rail_fast ship container cable_car subway aircraft wheelchair scooter drone" speed="3.65" length="1.44" shape="1707.32,1610.25 1706.75,1608.92"/>
    </edge>
    <edge id=":4950043868_9" function="internal">
        <lane id=":4950043868_9_0" index="0" disallow="tram rail_urban rail rail_electric rail_fast ship container cable_car subway aircraft wheelchair scooter drone" speed="3.65" length="3.23" shape="1706.75,1608.92 1706.85,1608.03 1707.63,1607.58 1709.07,1607.57"/>
    </edge>
    <edge id=":4950043868_3" function="internal">
        <lane id=":4950043868_3_0" index="0" disallow="tram rail_urban rail rail_electric rail_fast ship container cable_car subway aircraft wheelchair scooter drone" speed="13.89" length="14.42" shape="1697.00,1599.68 1709.07,1607.57"/>
    </edge>
    <edge id=":4950043868_4" function="internal">
        <lane id=":4950043868_4_0" index="0" disallow="tram rail_urban rail rail_electric rail_fast ship container cable_car subway aircraft wheelchair scooter drone" speed="8.26" length="3.95" shape="1697.00,1599.68 1699.83,1602.19 1699.90,1602.34"/>
    </edge>
    <edge id=":4950043868_5" function="internal">
        <lane id=":4950043868_5_0" index="0" disallow="tram rail_urban rail rail_electric rail_fast ship container cable_car subway aircraft wheelchair scooter drone" speed="3.65" length="1.44" shape="1697.00,1599.68 1697.57,1601.00"/>
    </edge>
    <edge id=":4950043868_10" function="internal">
        <lane id=":4950043868_10_0" index="0" disallow="tram rail_urban rail rail_electric rail_fast ship container cable_car subway aircraft wheelchair scooter drone" speed="8.26" length="10.36" shape="1699.90,1602.34 1701.23,1605.10 1701.21,1608.41 1699.76,1612.12"/>
    </edge>
    <edge id=":4950043868_11" function="internal">
        <lane id=":4950043868_11_0" index="0" disallow="tram rail_urban rail rail_electric rail_fast ship container cable_car subway aircraft wheelchair scooter drone" speed="3.65" length="3.23" shape="1697.57,1601.00 1697.47,1601.89 1696.69,1602.34 1695.25,1602.35"/>
    </edge>
    <edge id=":4950043868_6" function="internal">
        <lane id=":4950043868_6_0" index="0" disallow="tram rail_urban rail rail_electric rail_fast ship container cable_car subway aircraft wheelchair scooter drone" speed="6.81" length="9.42" shape="1696.96,1610.58 1697.93,1608.10 1697.97,1605.91 1697.08,1603.99 1695.25,1602.35"/>
    </edge>
    <edge id=":4950043868_7" function="internal">
        <lane id=":4950043868_7_0" index="0" disallow="tram rail_urban rail rail_electric rail_fast ship container cable_car subway aircraft wheelchair scooter drone" speed="7.87" length="14.48" shape="1696.96,1610.58 1699.38,1607.38 1702.20,1605.81 1705.43,1605.87 1709.07,1607.57"/>
    </edge>
    <edge id=":4950043868_8" function="internal">
        <lane id=":4950043868_8_0" index="0" disallow="tram rail_urban rail rail_electric rail_fast ship container cable_car subway aircraft wheelchair scooter drone" speed="3.65" length="4.67" shape="1696.96,1610.58 1698.24,1609.91 1699.13,1609.95 1699.64,1610.69 1699.76,1612.12"/>
    </edge>
    <edge id=":4950043870_0" function="internal">
        <lane id=":4950043870_0_0" index="0" disallow="tram rail_urban rail rail_electric rail_fast ship container cable_car subway aircraft wheelchair scooter drone" speed="13.89" length="14.41" shape="1777.90,1656.44 1765.85,1648.55"/>
    </edge>
    <edge id=":4950043870_1" function="internal">
        <lane id=":4950043870_1_0" index="0" disallow="tram rail_urban rail rail_electric rail_fast ship container cable_car subway aircraft wheelchair scooter drone" speed="7.93" length="4.10" shape="1777.90,1656.44 1774.94,1653.82 1774.87,1653.69"/>
    </edge>
    <edge id=":4950043870_2" function="internal">
        <lane id=":4950043870_2_0" index="0" disallow="tram rail_urban rail rail_electric rail_fast ship container cable_car subway aircraft wheelchair scooter drone" speed="3.65" length="1.44" shape="1777.90,1656.44 1777.34,1655.11"/>
    </edge>
    <edge id=":4950043870_9" function="internal">
        <lane id=":4950043870_9_0" index="0" disallow="tram rail_urban rail rail_electric rail_fast ship container cable_car subway aircraft wheelchair scooter drone" speed="7.93" length="10.25" shape="1774.87,1653.69 1773.56,1650.91 1773.79,1647.69 1775.61,1644.18"/>
    </edge>
    <edge id=":4950043870_10" function="internal">
        <lane id=":4950043870_10_0" index="0" disallow="tram rail_urban rail rail_electric rail_fast ship container cable_car subway aircraft wheelchair scooter drone" speed="3.65" length="3.23" shape="1777.34,1655.11 1777.44,1654.22 1778.21,1653.77 1779.66,1653.76"/>
    </edge>
    <edge id=":4950043870_3" function="internal">
        <lane id=":4950043870_3_0" index="0" disallow="tram rail_urban rail rail_electric rail_fast ship container cable_car subway aircraft wheelchair scooter drone" speed="6.42" length="9.04" shape="1778.22,1646.05 1777.07,1648.26 1776.92,1650.28 1777.79,1652.11 1779.66,1653.76"/>
    </edge>
    <edge id=":4950043870_4" function="internal">
        <lane id=":4950043870_4_0" index="0" disallow="tram rail_urban rail rail_electric rail_fast ship container cable_car subway aircraft wheelchair scooter drone" speed="8.14" length="14.25" shape="1778.22,1646.05 1775.50,1648.91 1772.54,1650.28 1769.32,1650.16 1765.85,1648.55"/>
    </edge>
    <edge id=":4950043870_5" function="internal">
        <lane id=":4950043870_5_0" index="0" disallow="tram rail_urban rail rail_electric rail_fast ship container cable_car subway aircraft wheelchair scooter drone" speed="3.65" length="4.67" shape="1778.22,1646.05 1776.87,1646.56 1775.98,1646.42 1775.57,1645.62 1775.61,1644.18"/>
    </edge>
    <edge id=":4950043870_6" function="internal">
        <lane id=":4950043870_6_0" index="0" disallow="tram rail_urban rail rail_electric rail_fast ship container cable_car subway aircraft wheelchair scooter drone" speed="6.68" length="9.25" shape="1767.60,1645.87 1769.84,1646.90 1771.92,1646.96 1773.85,1646.06 1775.61,1644.18"/>
    </edge>
    <edge id=":4950043870_7" function="internal">
        <lane id=":4950043870_7_0" index="0" disallow="tram rail_urban rail rail_electric rail_fast ship container cable_car subway aircraft wheelchair scooter drone" speed="13.89" length="14.41" shape="1767.60,1645.87 1779.66,1653.76"/>
    </edge>
    <edge id=":4950043870_8" function="internal">
        <lane id=":4950043870_8_0" index="0" disallow="tram rail_urban rail rail_electric rail_fast ship container cable_car subway aircraft wheelchair scooter drone" speed="3.65" length="1.44" shape="1767.60,1645.87 1768.17,1647.20"/>
    </edge>
    <edge id=":4950043870_11" function="internal">